*Heading
** Job name: Job-1 Model name: Model-1
** Generated by: Abaqus/CAE 2018
*Preprint, echo=NO, model=NO, history=NO, contact=NO
**
** PARTS
**
*Part, name=star
*Node
      1, 0.0170000009,           0.,           0.
      2, 0.0170000009,           0.,  0.150000006
      3, -0.0577350259,           0.,           0.
      4, -0.0527293608, 0.00867006835,           0.
      5, -0.0338731781, 0.0413299315,           0.
      6, -0.0288675129, 0.0500000007,           0.
      7, -0.0188561808, 0.0500000007,           0.
      8, 0.0188561808, 0.0500000007,           0.
      9, 0.0288675129, 0.0500000007,           0.
     10, 0.0338731781, 0.0413299315,           0.
     11, 0.0527293608, 0.00867006835,           0.
     12, 0.0577350259,           0.,           0.
     13, 0.0527293608, -0.00867006835,           0.
     14, 0.0338731781, -0.0413299315,           0.
     15, 0.0288675129, -0.0500000007,           0.
     16, 0.0188561808, -0.0500000007,           0.
     17, -0.0188561808, -0.0500000007,           0.
     18, -0.0288675129, -0.0500000007,           0.
     19, -0.0338731781, -0.0413299315,           0.
     20, -0.0527293608, -0.00867006835,           0.
** ... 1451 like lines cut
*Element, type=DC3D4
  1, 1003,  398, 1004,  399
  2, 1003, 1005,  398,  397
  3, 1003, 1005,  397,  408
  4, 1005, 1006,  407, 1003
  5, 1003,  410, 1007, 1008
  6, 1003, 1009, 1005, 1006
  7, 1010, 1009, 1007, 1011
  8, 1010, 1012,  403, 1013
  9, 1010, 1014, 1004, 1013
 10, 1010,  402, 1014, 1013
 11,  494, 1015, 1016, 1017
 12, 1004, 1014,  389, 1018
 13, 1014, 1019, 1013,  381
 14, 1014, 1020,  381,  391
 15, 1014, 1020, 1021, 1018
 16, 1014, 1018, 1004, 1013
 17, 1014, 1013,  402,  391
 18, 1010,  401, 1014,  402
 19, 1022, 1023, 1024, 1025
 20, 1025, 1026, 1024, 1022
** ... 6075 like lines cut
*Nset, nset=_PickedSet9, internal, generate
    1,  1471,     1
*Elset, elset=_PickedSet9, internal, generate
    1,  6095,     1
*Nset, nset=HFlux
    2,   21,   22,   23,   24,   25,   26,   27,   28,   29,   30,   31,   32,   33,   34,   35
   36,   37,   38,   49,   50,   51,   52,   53,   54,   55,   56,   57,   58,  131,  132,  133
  134,  135,  178,  179,  180,  181,  182,  225,  226,  227,  228,  229,  272,  273,  274,  275
  276,  319,  320,  321,  322,  323,  366,  367,  368,  369,  370,  376,  377,  378,  379,  380
  979,  980,  981,  982,  983,  984,  985,  986,  987,  988,  989,  990,  991,  992,  993,  994
  995,  996,  997,  998,  999, 1000, 1001, 1002
** Section: Section-1
*Solid Section, elset=_PickedSet9, material=Material-1
,
*End Part
**  
**
** ASSEMBLY
**
*Assembly, name=Assembly
**  
*Instance, name=star-1, part=star
*End Instance
**  
*Nset, nset=_PickedSet4, internal, instance=star-1, generate
    1,  1471,     1
*Elset, elset=_PickedSet4, internal, instance=star-1, generate
    1,  6095,     1
*Nset, nset=_PickedSet5, internal, instance=star-1
   1,   3,   4,   5,   6,   7,   8,   9,  10,  11,  12,  13,  14,  15,  16,  17
  18,  19,  20,  39,  40,  41,  42,  43,  44,  45,  46,  47,  48,  59,  60,  61
  62,  63,  64,  65,  66,  67,  68,  69,  70,  71,  72,  73,  74,  75,  76,  77
  78,  79,  80,  81,  82,  83,  84,  85,  86,  87,  88, 371, 372, 373, 374, 375
 535, 536, 537, 538, 539, 540, 541, 542, 543, 544, 545, 546, 547, 548, 549, 550
 551, 552, 553, 554, 555, 556, 557, 558
*Elset, elset=_PickedSet5, internal, instance=star-1
   30,  167,  174,  182,  258,  278,  291,  343,  431,  434,  496,  639,  665,  681,  695,  708
  711,  720,  945, 1039, 1127, 1132, 1316, 1388, 1542, 1662, 1838, 2174, 2434, 2482, 2625, 2627
 2810, 2819, 2820, 2821, 2823, 2835, 2862, 2874, 2880, 2881, 2884, 2891, 2901, 2914, 2931, 2961
 2965, 2967, 2970, 2994, 3002, 3011, 3017, 3023, 3024, 3037, 3039, 3048, 3053, 3054, 3060, 3071
 3073, 3083, 3087, 3109, 3118, 3134, 3136, 3156, 3158, 3164, 3176, 3189, 3195, 3196, 3231, 3237
 3258, 3286, 3596, 3629, 3818, 3839, 3855, 3925, 3926, 3934, 3950, 3995, 4019, 4024, 4031, 4035
 4061, 4076, 4107, 4116, 4131, 4150, 4157, 4509, 4513, 4515, 4529, 4979, 4995, 5015, 5035, 5205
 5208, 5226, 5255, 5268, 5275, 5291, 5899, 5905, 5915, 5919, 5927, 5943, 5946, 6073
*End Assembly
** 
** MATERIALS
** 
*Material, name=Material-1
*Conductivity
200.,
*Density
1000.,
*Specific Heat
2000.,
** 
** PREDEFINED FIELDS
** 
** Name: T0   Type: Temperature
*Initial Conditions, type=TEMPERATURE
_PickedSet4, 0.
** ----------------------------------------------------------------
** 
** STEP: Step-1
** 
*Step, name=Step-1, nlgeom=NO, inc=10000
*Heat Transfer, end=PERIOD
0.03, 120., , ,
** 
** BOUNDARY CONDITIONS
** 
** Name: FixT Type: Temperature
*Boundary
_PickedSet5, 11, 11
** 
** LOADS
** 
** Name: Load-1   Type: Concentrated heat flux
*Cflux
star-1.HFlux, 11, 4.
** 
** OUTPUT REQUESTS
** 
*Restart, write, frequency=0
** 
** FIELD OUTPUT: F-Output-1
** 
*Output, field, variable=PRESELECT
*Output, history, frequency=0
*End Step
